Version 4
SHEET 1 1736 680
WIRE -288 64 -544 64
WIRE 784 64 608 64
WIRE -176 80 -224 80
WIRE 48 80 -176 80
WIRE 208 80 128 80
WIRE 608 80 608 64
WIRE 608 80 208 80
WIRE 896 80 848 80
WIRE 1376 80 896 80
WIRE -288 96 -304 96
WIRE -176 96 -176 80
WIRE 784 96 768 96
WIRE 896 96 896 80
WIRE -592 112 -752 112
WIRE 208 112 208 80
WIRE 1376 112 1376 80
WIRE -752 160 -752 112
WIRE -544 160 -544 64
WIRE -592 176 -592 112
WIRE 1376 192 1248 192
WIRE -304 208 -304 96
WIRE -176 208 -176 176
WIRE -176 208 -304 208
WIRE 768 208 768 96
WIRE 896 208 896 176
WIRE 896 208 768 208
WIRE 976 208 896 208
WIRE 1152 208 1056 208
WIRE 1184 208 1152 208
WIRE 1312 224 1248 224
WIRE -176 240 -176 208
WIRE 896 240 896 208
WIRE -592 256 -592 224
WIRE -544 256 -544 240
WIRE -544 256 -592 256
WIRE 1376 272 1376 192
WIRE 208 288 208 272
WIRE 416 288 208 288
WIRE 608 288 608 80
WIRE 1152 288 1152 208
WIRE 1312 288 1312 224
WIRE 1312 288 1216 288
WIRE 1312 304 1312 288
WIRE -752 400 -752 240
WIRE -544 400 -544 256
WIRE -544 400 -752 400
WIRE -176 400 -176 320
WIRE -176 400 -544 400
WIRE 208 400 208 352
WIRE 208 400 -176 400
WIRE 416 400 416 352
WIRE 416 400 208 400
WIRE 608 400 608 352
WIRE 608 400 416 400
WIRE 896 400 896 320
WIRE 896 400 608 400
WIRE 1312 400 1312 384
WIRE 1312 400 896 400
WIRE 1376 400 1376 336
WIRE 1376 400 1312 400
WIRE -752 432 -752 400
FLAG -752 432 0
SYMBOL voltage -752 144 R0
WINDOW 123 0 0 Left 0
WINDOW 39 0 0 Left 0
SYMATTR InstName AC1
SYMATTR Value AC 5m
SYMBOL res 144 64 R90
WINDOW 0 0 56 VBottom 2
WINDOW 3 32 56 VTop 2
SYMATTR InstName R1
SYMATTR Value {mc(16k,tolr)}
SYMBOL res 192 96 R0
SYMATTR InstName R2
SYMATTR Value {mc(2.2k,tolr)}
SYMBOL res 192 176 R0
SYMATTR InstName R3
SYMATTR Value {mc(127R,tolr)}
SYMBOL cap 192 288 R0
SYMATTR InstName C1
SYMATTR Value {mc(68n,tolc)}
SYMBOL cap 400 288 R0
SYMATTR InstName C2
SYMATTR Value {mc(68n,tolc)}
SYMBOL cap 592 288 R0
SYMATTR InstName C3
SYMATTR Value {mc(47n,tolc)}
SYMBOL e -544 144 R0
WINDOW 3 -284 -178 Left 2
SYMATTR InstName E1
SYMATTR Value Laplace=(((1+3180u*s)*(1+75u*s))/((1+318u*s)*(1+3.18u*s)))/10
SYMBOL OpAmps\\opamp -256 144 M180
SYMATTR InstName U1
SYMBOL res -192 80 R0
SYMATTR InstName R4
SYMATTR Value 3.3k
SYMBOL res -192 224 R0
SYMATTR InstName R5
SYMATTR Value 100R
SYMBOL OpAmps\\opamp 816 144 M180
SYMATTR InstName U2
SYMBOL res 880 80 R0
SYMATTR InstName R6
SYMATTR Value 3.3k
SYMBOL res 880 224 R0
SYMATTR InstName R7
SYMATTR Value 300R
SYMBOL OpAmps\\opamp 1216 272 R180
SYMATTR InstName U3
SYMBOL res 1072 192 R90
WINDOW 0 0 56 VBottom 2
WINDOW 3 32 56 VTop 2
SYMATTR InstName R8
SYMATTR Value 27k
SYMBOL res 1360 208 M180
WINDOW 0 36 76 Left 2
WINDOW 3 36 40 Left 2
SYMATTR InstName R9
SYMATTR Value 470k
SYMBOL res 1328 400 R180
WINDOW 0 36 76 Left 2
WINDOW 3 36 40 Left 2
SYMATTR InstName R10
SYMATTR Value 470k
SYMBOL cap 1216 272 R90
WINDOW 0 0 32 VBottom 2
WINDOW 3 32 32 VTop 2
SYMATTR InstName C4
SYMATTR Value 470n
SYMBOL cap 1360 336 M180
WINDOW 0 24 56 Left 2
WINDOW 3 24 8 Left 2
SYMATTR InstName C5
SYMATTR Value 470n
TEXT 702 572 Left 2 !.ac dec 10 20 20k
TEXT 704 536 Left 2 !*.step param run 1 100 1
TEXT 712 488 Left 2 !.param tolr=0.01 tolc=0.02
TEXT -832 -72 Left 2 ;Laplace=(((1+3180u*s)*(1+75u*s))/((1+318u*s)*(1+3.18u*s)))/10
TEXT 704 600 Left 2 !.lib opamp.sub
