Version 4
SHEET 1 1920 708
WIRE -1136 64 -1216 64
WIRE -1120 64 -1136 64
WIRE -976 64 -1040 64
WIRE -816 64 -896 64
WIRE -672 64 -816 64
WIRE -560 64 -672 64
WIRE -352 64 -560 64
WIRE -288 64 -352 64
WIRE 784 64 608 64
WIRE -176 80 -224 80
WIRE 48 80 -176 80
WIRE 208 80 128 80
WIRE 608 80 608 64
WIRE 608 80 208 80
WIRE 896 80 848 80
WIRE 1376 80 896 80
WIRE -288 96 -304 96
WIRE -176 96 -176 80
WIRE 784 96 768 96
WIRE 896 96 896 80
WIRE -1264 112 -1424 112
WIRE 208 112 208 80
WIRE 1376 112 1376 80
WIRE -1424 160 -1424 112
WIRE -1216 160 -1216 64
WIRE -1264 176 -1264 112
WIRE -1136 192 -1136 64
WIRE -976 192 -1136 192
WIRE -816 192 -816 64
WIRE -816 192 -896 192
WIRE 1376 192 1248 192
WIRE -560 208 -560 64
WIRE -304 208 -304 96
WIRE -176 208 -176 176
WIRE -176 208 -304 208
WIRE 768 208 768 96
WIRE 896 208 896 176
WIRE 896 208 768 208
WIRE 976 208 896 208
WIRE 1152 208 1056 208
WIRE 1184 208 1152 208
WIRE -672 224 -672 64
WIRE 1312 224 1248 224
WIRE -176 240 -176 208
WIRE 896 240 896 208
WIRE -1264 256 -1264 224
WIRE -1216 256 -1216 240
WIRE -1216 256 -1264 256
WIRE 1376 272 1376 192
WIRE 208 288 208 192
WIRE 416 288 208 288
WIRE 608 288 608 80
WIRE 1152 288 1152 208
WIRE 1312 288 1312 224
WIRE 1312 288 1216 288
WIRE 1312 304 1312 288
WIRE -1424 352 -1424 240
WIRE -1216 352 -1216 256
WIRE -1216 352 -1424 352
WIRE -816 352 -1216 352
WIRE -672 352 -672 288
WIRE -672 352 -816 352
WIRE -560 352 -560 288
WIRE -560 352 -672 352
WIRE -352 352 -560 352
WIRE -288 352 -352 352
WIRE -176 368 -176 320
WIRE -176 368 -224 368
WIRE -288 384 -304 384
WIRE -176 384 -176 368
WIRE 208 400 208 352
WIRE 416 400 416 352
WIRE 416 400 208 400
WIRE 608 400 608 352
WIRE 608 400 416 400
WIRE 896 400 896 320
WIRE 1312 400 1312 384
WIRE 1376 400 1376 336
WIRE 1376 400 1312 400
WIRE 208 432 208 400
WIRE 1376 432 1376 400
WIRE -816 448 -816 352
WIRE -304 496 -304 384
WIRE -176 496 -176 464
WIRE -176 496 -304 496
WIRE -176 528 -176 496
WIRE -816 576 -816 528
WIRE -176 688 -176 608
FLAG 1376 80 vout
FLAG -352 64 vin
FLAG -352 352 vin2
FLAG -176 688 0
FLAG 208 432 0
FLAG 896 400 0
FLAG 1376 432 0
FLAG -816 576 0
SYMBOL voltage -1424 144 R0
WINDOW 123 24 124 Left 2
WINDOW 39 0 0 Left 0
SYMATTR Value2 AC {table(sim,1,5m,2,0)}
SYMATTR InstName AC1
SYMATTR Value ""
SYMBOL res 144 64 R90
WINDOW 0 0 56 VBottom 2
WINDOW 3 32 56 VTop 2
SYMATTR InstName R1
SYMATTR Value {mc(16k,tolr)}
SYMBOL res 192 96 R0
SYMATTR InstName R2
SYMATTR Value {mc(2.32k,tolr)}
SYMBOL cap 192 288 R0
SYMATTR InstName C1
SYMATTR Value {mc(68n,tolc)}
SYMBOL cap 400 288 R0
SYMATTR InstName C2
SYMATTR Value {mc(68n,tolc)}
SYMBOL cap 592 288 R0
SYMATTR InstName C3
SYMATTR Value {mc(47n,tolc)}
SYMBOL e -1216 144 R0
WINDOW 3 -215 -216 Left 2
SYMATTR Value Laplace=(((1+3180u*s)*(1+75u*s))/((1+318u*s)))/10
SYMATTR InstName E1
SYMBOL OpAmps\\opamp -256 144 M180
WINDOW 0 -24 124 Left 2
SYMATTR InstName OPA1644
SYMATTR SpiceLine Aol=1Meg
SYMATTR SpiceLine2 GBW=11Meg
SYMBOL res -192 80 R0
SYMATTR InstName R4
SYMATTR Value 16k
SYMBOL OpAmps\\opamp 816 144 M180
SYMATTR InstName OPA1612
SYMATTR SpiceLine Aol=1Meg
SYMATTR SpiceLine2 GBW=40Meg
SYMBOL res 880 80 R0
SYMATTR InstName R6
SYMATTR Value 16k
SYMBOL res 880 224 R0
SYMATTR InstName R7
SYMATTR Value 499R
SYMBOL OpAmps\\opamp 1216 272 R180
SYMATTR InstName U3
SYMBOL res 1072 192 R90
WINDOW 0 0 56 VBottom 2
WINDOW 3 32 56 VTop 2
SYMATTR InstName R8
SYMATTR Value 47k
SYMBOL res 1360 208 M180
WINDOW 0 36 76 Left 2
WINDOW 3 36 40 Left 2
SYMATTR InstName R9
SYMATTR Value 47k
SYMBOL res 1328 400 R180
WINDOW 0 36 76 Left 2
WINDOW 3 36 40 Left 2
SYMATTR InstName R10
SYMATTR Value 47k
SYMBOL cap 1216 272 R90
WINDOW 0 0 32 VBottom 2
WINDOW 3 32 32 VTop 2
SYMATTR InstName C4
SYMATTR Value 1µ
SYMBOL cap 1360 336 M180
WINDOW 0 24 56 Left 2
WINDOW 3 24 8 Left 2
SYMATTR InstName C5
SYMATTR Value 1µ
SYMBOL res -1024 48 R90
WINDOW 0 0 56 VBottom 2
WINDOW 3 32 56 VTop 2
SYMATTR InstName R11
SYMATTR Value 750
SYMBOL ind -992 80 R270
WINDOW 0 32 56 VTop 2
WINDOW 3 5 56 VBottom 2
SYMATTR InstName L1
SYMATTR Value 450m
SYMBOL res -576 192 R0
SYMATTR InstName R13
SYMATTR Value 47k
SYMBOL cap -688 224 R0
SYMATTR InstName C6
SYMATTR Value {X}
SYMBOL res -880 176 R90
WINDOW 0 0 56 VBottom 2
WINDOW 3 32 56 VTop 2
SYMATTR InstName Rbypass
SYMATTR Value {Rbyp}
SYMBOL OpAmps\\opamp -256 432 M180
WINDOW 0 -24 124 Left 2
SYMATTR InstName OPA1
SYMATTR SpiceLine Aol=1Meg
SYMATTR SpiceLine2 GBW=11Meg
SYMBOL res -192 512 R0
SYMATTR InstName R3
SYMATTR Value 16k
SYMBOL voltage -816 432 R0
WINDOW 123 0 0 Left 0
WINDOW 39 0 0 Left 0
SYMATTR InstName ACnoise
SYMATTR Value AC {table(sim,1,0,2,5m)}
SYMBOL res -192 224 R0
SYMATTR InstName R5
SYMATTR Value 16k
SYMBOL res -192 368 R0
SYMATTR InstName R12
SYMATTR Value 16k
TEXT 1296 544 Left 2 !.ac dec 20 0.1 1Meg
TEXT 496 440 Left 2 !;.step param run 1 50 1
TEXT 1008 624 Left 2 !.param tolr=0.01 tolc=0.02 X=102p Rbyp=1f SIM=1
TEXT 768 16 Left 2 !.lib opamp.sub
TEXT 488 544 Left 2 !*.step param X list 50p 100p 120p
TEXT -1432 -104 Left 2 ;cartridge model from OM10 https://www.ortofon.com/om-series-p-550
TEXT 1288 512 Left 2 !;ac dec 20 20 20k
TEXT 960 592 Left 2 !.meas AC RIAA_dev_pp PP V(vout)
TEXT 496 584 Left 2 !;.step param Rbyp list 1G 1f
TEXT 496 648 Left 2 !;.step param sim list 1 2
